<?xml version="1.0" encoding="UTF-8"?>

<!-- generated on 2021-11-02 20:12:47 by Eclipse SUMO netedit Version 1.10.0
<configuration xmlns:xsi="http://www.w3.org/2001/XMLSchema-instance" xsi:noNamespaceSchemaLocation="http://sumo.dlr.de/xsd/netconvertConfiguration.xsd">

    <input>
        <sumo-net-file value="D:\sumoProjects\traci_straight_road\data\road.net.xml"/>
    </input>

    <output>
        <output-file value="D:\sumoProjects\traci_straight_road\data\road.net.xml"/>
    </output>

    <processing>
        <geometry.min-radius.fix.railways value="false"/>
        <geometry.max-grade.fix value="false"/>
        <offset.disable-normalization value="true"/>
        <lefthand value="false"/>
    </processing>

    <junctions>
        <no-internal-links value="true"/>
        <no-turnarounds value="true"/>
        <junctions.corner-detail value="5"/>
        <junctions.limit-turn-speed value="5.5"/>
        <rectangular-lane-cut value="false"/>
    </junctions>

    <pedestrian>
        <walkingareas value="false"/>
    </pedestrian>

    <report>
        <aggregate-warnings value="5"/>
    </report>

</configuration>
-->

<net version="1.9" junctionCornerDetail="5" limitTurnSpeed="5.50" xmlns:xsi="http://www.w3.org/2001/XMLSchema-instance" xsi:noNamespaceSchemaLocation="http://sumo.dlr.de/xsd/net_file.xsd">

    <location netOffset="0.00,0.00" convBoundary="-210.00,0.00,210.00,0.00" origBoundary="-10000000000.00,-10000000000.00,10000000000.00,10000000000.00" projParameter="!"/>

    <edge id="left1" from="entrance1" to="end1" priority="-1" length="10.00">
        <lane id="left1_0" index="0" speed="13.89" length="10.00" shape="-200.00,1.60 -210.00,1.60"/>
    </edge>
    <edge id="left2" from="end2" to="entrance2" priority="-1" length="10.00">
        <lane id="left2_0" index="0" speed="13.89" length="10.00" shape="210.00,1.60 200.00,1.60"/>
    </edge>
    <edge id="left21" from="entrance2" to="entrance1" priority="-1" length="380.00">
        <lane id="left21_0" index="0" speed="20.00" length="380.00" shape="200.00,1.60 -200.00,1.60"/>
    </edge>
    <edge id="right1" from="end1" to="entrance1" priority="-1" length="10.00">
        <lane id="right1_0" index="0" speed="13.89" length="10.00" shape="-210.00,-1.60 -200.00,-1.60"/>
    </edge>
    <edge id="right12" from="entrance1" to="entrance2" priority="-1" length="380.00">
        <lane id="right12_0" index="0" speed="20.00" length="380.00" shape="-200.00,-1.60 200.00,-1.60"/>
    </edge>
    <edge id="right2" from="entrance2" to="end2" priority="-1" length="10.00">
        <lane id="right2_0" index="0" speed="13.89" length="10.00" shape="200.00,-1.60 210.00,-1.60"/>
    </edge>

    <junction id="end1" type="dead_end" x="-210.00" y="0.00" incLanes="left1_0" intLanes="" shape="-210.00,0.00 -210.00,3.20 -210.00,0.00"/>
    <junction id="end2" type="dead_end" x="210.00" y="0.00" incLanes="right2_0" intLanes="" shape="210.00,0.00 210.00,-3.20 210.00,0.00"/>
    <junction id="entrance1" type="priority" x="-200.00" y="0.00" incLanes="left21_0 right1_0" intLanes="" shape="-200.00,3.20 -200.00,-3.20 -200.00,3.20">
        <request index="0" response="00" foes="00"/>
        <request index="1" response="00" foes="00"/>
    </junction>
    <junction id="entrance2" type="priority" x="200.00" y="0.00" incLanes="left2_0 right12_0" intLanes="" shape="200.00,3.20 200.00,-3.20 200.00,3.20">
        <request index="0" response="00" foes="00"/>
        <request index="1" response="00" foes="00"/>
    </junction>

    <connection from="left2" to="left21" fromLane="0" toLane="0" dir="s" state="M"/>
    <connection from="left21" to="left1" fromLane="0" toLane="0" dir="s" state="M"/>
    <connection from="right1" to="right12" fromLane="0" toLane="0" dir="s" state="M"/>
    <connection from="right12" to="right2" fromLane="0" toLane="0" dir="s" state="M"/>

</net>
