<routes>
        <vType id="typecar" accel="1000000" decel="1000000" sigma="0" length="0.01" minGap="0.01" maxSpeed="20" speedFactoer="normc(1, 0, 1, 1)" guiShape="passenger"/>
        <route id="right" edges="right1 right12 right2" />
        <route id="left" edges="left2 left21 left1" />
    <vehicle id="car_0" type="typecar" route="right" depart="0.70" />
    <vehicle id="car_1" type="typecar" route="right" depart="1.60" />
    <vehicle id="car_2" type="typecar" route="right" depart="9.30" />
    <vehicle id="car_3" type="typecar" route="right" depart="15.30" />
    <vehicle id="car_4" type="typecar" route="right" depart="25.80" />
    <vehicle id="car_5" type="typecar" route="right" depart="32.90" />
    <vehicle id="car_6" type="typecar" route="right" depart="45.60" />
    <vehicle id="car_7" type="typecar" route="right" depart="55.40" />
    <vehicle id="car_8" type="typecar" route="right" depart="58.60" />
    <vehicle id="car_9" type="typecar" route="right" depart="62.60" />
    <vehicle id="car_10" type="typecar" route="right" depart="74.30" />
    <vehicle id="car_11" type="typecar" route="right" depart="75.50" />
    <vehicle id="car_12" type="typecar" route="right" depart="77.40" />
    <vehicle id="car_13" type="typecar" route="right" depart="82.80" />
    <vehicle id="car_14" type="typecar" route="right" depart="95.20" />
    <vehicle id="car_15" type="typecar" route="right" depart="96.10" />
    <vehicle id="car_16" type="typecar" route="right" depart="105.80" />
    <vehicle id="car_17" type="typecar" route="right" depart="106.40" />
    <vehicle id="car_18" type="typecar" route="right" depart="110.00" />
    <vehicle id="car_19" type="typecar" route="right" depart="114.20" />
    <vehicle id="car_20" type="typecar" route="right" depart="117.10" />
    <vehicle id="car_21" type="typecar" route="right" depart="125.50" />
    <vehicle id="car_22" type="typecar" route="right" depart="133.70" />
    <vehicle id="car_23" type="typecar" route="right" depart="135.30" />
    <vehicle id="car_24" type="typecar" route="right" depart="135.90" />
    <vehicle id="car_25" type="typecar" route="right" depart="137.40" />
    <vehicle id="car_26" type="typecar" route="right" depart="146.50" />
    <vehicle id="car_27" type="typecar" route="right" depart="162.70" />
    <vehicle id="car_28" type="typecar" route="right" depart="172.10" />
    <vehicle id="car_29" type="typecar" route="right" depart="179.70" />
    <vehicle id="car_30" type="typecar" route="right" depart="200.50" />
    <vehicle id="car_31" type="typecar" route="right" depart="227.20" />
    <vehicle id="car_32" type="typecar" route="right" depart="227.30" />
    <vehicle id="car_33" type="typecar" route="right" depart="253.00" />
    <vehicle id="car_34" type="typecar" route="right" depart="271.30" />
    <vehicle id="car_35" type="typecar" route="right" depart="272.20" />
    <vehicle id="car_36" type="typecar" route="right" depart="276.10" />
    <vehicle id="car_37" type="typecar" route="right" depart="288.20" />
    <vehicle id="car_38" type="typecar" route="right" depart="290.20" />
    <vehicle id="car_39" type="typecar" route="right" depart="319.90" />
    <vehicle id="car_40" type="typecar" route="right" depart="324.80" />
    <vehicle id="car_41" type="typecar" route="right" depart="340.30" />
    <vehicle id="car_42" type="typecar" route="right" depart="357.50" />
    <vehicle id="car_43" type="typecar" route="right" depart="400.10" />
    <vehicle id="car_44" type="typecar" route="right" depart="404.40" />
    <vehicle id="car_45" type="typecar" route="right" depart="406.50" />
    <vehicle id="car_46" type="typecar" route="right" depart="408.20" />
    <vehicle id="car_47" type="typecar" route="right" depart="414.30" />
    <vehicle id="car_48" type="typecar" route="right" depart="418.10" />
    <vehicle id="car_49" type="typecar" route="right" depart="449.20" />
    <vehicle id="car_50" type="typecar" route="right" depart="452.80" />
    <vehicle id="car_51" type="typecar" route="right" depart="455.10" />
    <vehicle id="car_52" type="typecar" route="right" depart="470.10" />
    <vehicle id="car_53" type="typecar" route="right" depart="474.10" />
    <vehicle id="car_54" type="typecar" route="right" depart="478.40" />
    <vehicle id="car_55" type="typecar" route="right" depart="486.40" />
    <vehicle id="car_56" type="typecar" route="right" depart="489.10" />
    <vehicle id="car_57" type="typecar" route="right" depart="499.80" />
    <vehicle id="car_58" type="typecar" route="right" depart="501.40" />
    <vehicle id="car_59" type="typecar" route="right" depart="508.30" />
    <vehicle id="car_60" type="typecar" route="right" depart="515.30" />
    <vehicle id="car_61" type="typecar" route="right" depart="527.80" />
    <vehicle id="car_62" type="typecar" route="right" depart="545.30" />
    <vehicle id="car_63" type="typecar" route="right" depart="565.50" />
    <vehicle id="car_64" type="typecar" route="right" depart="572.00" />
    <vehicle id="car_65" type="typecar" route="right" depart="588.90" />
    <vehicle id="car_66" type="typecar" route="right" depart="592.40" />
    <vehicle id="car_67" type="typecar" route="right" depart="593.00" />
    <vehicle id="car_68" type="typecar" route="right" depart="601.10" />
    <vehicle id="car_69" type="typecar" route="right" depart="601.80" />
    <vehicle id="car_70" type="typecar" route="right" depart="635.40" />
    <vehicle id="car_71" type="typecar" route="right" depart="638.70" />
    <vehicle id="car_72" type="typecar" route="right" depart="661.20" />
    <vehicle id="car_73" type="typecar" route="right" depart="672.90" />
    <vehicle id="car_74" type="typecar" route="right" depart="696.80" />
    <vehicle id="car_75" type="typecar" route="right" depart="702.60" />
    <vehicle id="car_76" type="typecar" route="right" depart="704.90" />
    <vehicle id="car_77" type="typecar" route="right" depart="705.20" />
    <vehicle id="car_78" type="typecar" route="right" depart="732.30" />
    <vehicle id="car_79" type="typecar" route="right" depart="733.40" />
    <vehicle id="car_80" type="typecar" route="right" depart="739.70" />
    <vehicle id="car_81" type="typecar" route="right" depart="762.20" />
    <vehicle id="car_82" type="typecar" route="right" depart="781.70" />
    <vehicle id="car_83" type="typecar" route="right" depart="794.90" />
    <vehicle id="car_84" type="typecar" route="right" depart="798.40" />
    <vehicle id="car_85" type="typecar" route="right" depart="803.10" />
    <vehicle id="car_86" type="typecar" route="right" depart="834.30" />
    <vehicle id="car_87" type="typecar" route="right" depart="851.50" />
    <vehicle id="car_88" type="typecar" route="right" depart="854.30" />
    <vehicle id="car_89" type="typecar" route="right" depart="859.70" />
    <vehicle id="car_90" type="typecar" route="right" depart="876.00" />
    <vehicle id="car_91" type="typecar" route="right" depart="876.70" />
    <vehicle id="car_92" type="typecar" route="right" depart="880.20" />
    <vehicle id="car_93" type="typecar" route="right" depart="886.30" />
    <vehicle id="car_94" type="typecar" route="right" depart="895.60" />
    <vehicle id="car_95" type="typecar" route="right" depart="896.00" />
    <vehicle id="car_96" type="typecar" route="right" depart="900.50" />
    <vehicle id="car_97" type="typecar" route="right" depart="935.10" />
    <vehicle id="car_98" type="typecar" route="right" depart="936.90" />
    <vehicle id="car_99" type="typecar" route="right" depart="956.60" />
    <vehicle id="car_100" type="typecar" route="right" depart="970.30" />
    <vehicle id="car_101" type="typecar" route="right" depart="976.20" />
    <vehicle id="car_102" type="typecar" route="right" depart="976.90" />
    <vehicle id="car_103" type="typecar" route="right" depart="987.70" />
    <vehicle id="car_104" type="typecar" route="right" depart="990.30" />
    <vehicle id="car_105" type="typecar" route="right" depart="994.40" />
</routes>
